<?xml version="1.0" encoding="UTF-8"?>

<!-- generated on 2025-05-14 02:55:54 by Eclipse SUMO netconvert Version 1.22.0
<netconvertConfiguration xmlns:xsi="http://www.w3.org/2001/XMLSchema-instance" xsi:noNamespaceSchemaLocation="http://sumo.dlr.de/xsd/netconvertConfiguration.xsd">

    <input>
        <osm-files value="map.osm"/>
    </input>

    <output>
        <output-file value="map.net.xml"/>
    </output>

    <projection>
        <proj.utm value="true"/>
    </projection>

</netconvertConfiguration>
-->

<net version="1.20" junctionCornerDetail="5" limitTurnSpeed="5.50" xmlns:xsi="http://www.w3.org/2001/XMLSchema-instance" xsi:noNamespaceSchemaLocation="http://sumo.dlr.de/xsd/net_file.xsd">

    <location netOffset="-664496.64,-4453225.42" convBoundary="0.00,0.00,3367.94,2848.63" origBoundary="28.914611,40.212985,28.973359,40.238298" projParameter="+proj=utm +zone=35 +ellps=WGS84 +datum=WGS84 +units=m +no_defs"/>

    <type id="highway.footway" priority="1" numLanes="1" speed="2.78" allow="pedestrian" oneway="1" width="2.00"/>
    <type id="highway.primary" priority="12" numLanes="2" speed="27.78" disallow="tram rail_urban rail rail_electric rail_fast ship container cable_car subway aircraft wheelchair scooter drone" oneway="0"/>
    <type id="highway.primary_link" priority="7" numLanes="1" speed="22.22" disallow="tram rail_urban rail rail_electric rail_fast ship container cable_car subway aircraft wheelchair scooter drone" oneway="0"/>
    <type id="highway.residential" priority="3" numLanes="1" speed="13.89" disallow="tram rail_urban rail rail_electric rail_fast ship container cable_car subway aircraft wheelchair scooter drone" oneway="0"/>
    <type id="highway.secondary" priority="11" numLanes="1" speed="27.78" disallow="tram rail_urban rail rail_electric rail_fast ship container cable_car subway aircraft wheelchair scooter drone" oneway="0"/>
    <type id="highway.secondary_link" priority="6" numLanes="1" speed="22.22" disallow="tram rail_urban rail rail_electric rail_fast ship container cable_car subway aircraft wheelchair scooter drone" oneway="0"/>
    <type id="highway.service" priority="1" numLanes="1" speed="5.56" allow="pedestrian delivery bicycle" oneway="0"/>

    <edge id=":12729886873_0" function="internal">
        <lane id=":12729886873_0_0" index="0" disallow="tram rail_urban rail rail_electric rail_fast ship container cable_car subway aircraft wheelchair scooter drone" speed="19.44" length="7.71" shape="1629.02,804.29 1628.19,796.62"/>
        <lane id=":12729886873_0_1" index="1" disallow="tram rail_urban rail rail_electric rail_fast ship container cable_car subway aircraft wheelchair scooter drone" speed="19.44" length="7.71" shape="1632.20,803.95 1631.37,796.28"/>
        <lane id=":12729886873_0_2" index="2" disallow="tram rail_urban rail rail_electric rail_fast ship container cable_car subway aircraft wheelchair scooter drone" speed="19.44" length="7.71" shape="1635.38,803.60 1634.55,795.94"/>
    </edge>
    <edge id=":12729886874_0" function="internal">
        <lane id=":12729886874_0_0" index="0" disallow="tram rail_urban rail rail_electric rail_fast ship container cable_car subway aircraft wheelchair scooter drone" speed="19.44" length="6.13" shape="1663.88,786.48 1665.61,792.36"/>
        <lane id=":12729886874_0_1" index="1" disallow="tram rail_urban rail rail_electric rail_fast ship container cable_car subway aircraft wheelchair scooter drone" speed="19.44" length="6.13" shape="1660.81,787.38 1662.54,793.26"/>
        <lane id=":12729886874_0_2" index="2" disallow="tram rail_urban rail rail_electric rail_fast ship container cable_car subway aircraft wheelchair scooter drone" speed="19.44" length="6.13" shape="1657.74,788.28 1659.47,794.17"/>
    </edge>
    <edge id=":12729886875_0" function="internal">
        <lane id=":12729886875_0_0" index="0" disallow="tram rail_urban rail rail_electric rail_fast ship container cable_car subway aircraft wheelchair scooter drone" speed="27.78" length="5.01" shape="1681.12,776.93 1684.00,781.04"/>
    </edge>
    <edge id=":1898717435_0" function="internal">
        <lane id=":1898717435_0_0" index="0" allow="pedestrian delivery bicycle" speed="12.50" length="12.62" shape="1612.63,187.08 1614.37,184.35 1615.91,182.15 1617.19,179.61 1618.16,175.88"/>
    </edge>
    <edge id=":1898717435_1" function="internal">
        <lane id=":1898717435_1_0" index="0" disallow="tram rail_urban rail rail_electric rail_fast ship container cable_car subway aircraft wheelchair scooter drone" speed="19.44" length="12.57" shape="1616.09,188.29 1618.16,175.88"/>
        <lane id=":1898717435_1_1" index="1" disallow="tram rail_urban rail rail_electric rail_fast ship container cable_car subway aircraft wheelchair scooter drone" speed="19.44" length="12.57" shape="1619.24,188.82 1621.31,176.42"/>
        <lane id=":1898717435_1_2" index="2" disallow="tram rail_urban rail rail_electric rail_fast ship container cable_car subway aircraft wheelchair scooter drone" speed="19.44" length="12.57" shape="1622.40,189.35 1624.46,176.96"/>
    </edge>
    <edge id=":1898717468_0" function="internal">
        <lane id=":1898717468_0_0" index="0" disallow="tram rail_urban rail rail_electric rail_fast ship container cable_car subway aircraft wheelchair scooter drone" speed="19.21" length="24.62" shape="1679.94,235.98 1676.45,239.86 1672.50,245.73 1669.04,251.91 1667.02,256.75"/>
    </edge>
    <edge id=":1898717468_1" function="internal">
        <lane id=":1898717468_1_0" index="0" disallow="tram rail_urban rail rail_electric rail_fast ship container cable_car subway aircraft wheelchair scooter drone" speed="7.51" length="20.19" shape="1679.94,235.98 1673.88,240.00 1669.87,240.78 1667.91,238.32 1668.01,232.63"/>
    </edge>
    <edge id=":1898717468_2" function="internal">
        <lane id=":1898717468_2_0" index="0" disallow="tram rail_urban rail rail_electric rail_fast ship container cable_car subway aircraft wheelchair scooter drone" speed="3.74" length="5.01" shape="1679.94,235.98 1678.55,236.66 1677.59,236.60 1677.07,235.79 1676.98,234.25"/>
    </edge>
    <edge id=":1898717468_3" function="internal">
        <lane id=":1898717468_3_0" index="0" disallow="tram rail_urban rail rail_electric rail_fast ship container cable_car subway aircraft wheelchair scooter drone" speed="5.36" length="9.45" shape="1671.17,233.11 1671.16,235.64 1672.12,236.67 1674.06,236.21 1676.98,234.25"/>
    </edge>
    <edge id=":1898717468_4" function="internal">
        <lane id=":1898717468_4_0" index="0" disallow="tram rail_urban rail rail_electric rail_fast ship container cable_car subway aircraft wheelchair scooter drone" speed="25.00" length="24.01" shape="1671.17,233.11 1670.39,238.21 1669.30,244.98 1668.12,251.72 1667.02,256.75"/>
    </edge>
    <edge id=":1898717468_5" function="internal">
        <lane id=":1898717468_5_0" index="0" disallow="tram rail_urban rail rail_electric rail_fast ship container cable_car subway aircraft wheelchair scooter drone" speed="3.65" length="1.44" shape="1671.17,233.11 1670.20,234.18"/>
    </edge>
    <edge id=":1898717468_9" function="internal">
        <lane id=":1898717468_9_0" index="0" disallow="tram rail_urban rail rail_electric rail_fast ship container cable_car subway aircraft wheelchair scooter drone" speed="3.65" length="3.23" shape="1670.20,234.18 1669.35,234.45 1668.62,233.93 1668.01,232.63"/>
    </edge>
    <edge id=":1898717468_6" function="internal">
        <lane id=":1898717468_6_0" index="0" disallow="tram rail_urban rail rail_electric rail_fast ship container cable_car subway aircraft wheelchair scooter drone" speed="25.00" length="23.64" shape="1663.93,255.91 1665.02,250.93 1666.18,244.31 1667.23,237.67 1668.01,232.63"/>
    </edge>
    <edge id=":1898717468_7" function="internal">
        <lane id=":1898717468_7_0" index="0" disallow="tram rail_urban rail rail_electric rail_fast ship container cable_car subway aircraft wheelchair scooter drone" speed="19.53" length="4.08" shape="1663.93,255.91 1665.48,252.13"/>
    </edge>
    <edge id=":1898717468_8" function="internal">
        <lane id=":1898717468_8_0" index="0" disallow="tram rail_urban rail rail_electric rail_fast ship container cable_car subway aircraft wheelchair scooter drone" speed="3.65" length="1.44" shape="1663.93,255.91 1665.02,254.96"/>
    </edge>
    <edge id=":1898717468_10" function="internal">
        <lane id=":1898717468_10_0" index="0" disallow="tram rail_urban rail rail_electric rail_fast ship container cable_car subway aircraft wheelchair scooter drone" speed="19.53" length="21.36" shape="1665.48,252.13 1665.98,250.93 1669.48,244.44 1673.47,238.27 1676.98,234.25"/>
    </edge>
    <edge id=":1898717468_11" function="internal">
        <lane id=":1898717468_11_0" index="0" disallow="tram rail_urban rail rail_electric rail_fast ship container cable_car subway aircraft wheelchair scooter drone" speed="3.65" length="3.23" shape="1665.02,254.96 1665.90,254.79 1666.56,255.38 1667.02,256.75"/>
    </edge>
    <edge id=":1898717598_0" function="internal">
        <lane id=":1898717598_0_0" index="0" disallow="tram rail_urban rail rail_electric rail_fast ship container cable_car subway aircraft wheelchair scooter drone" speed="6.78" length="10.22" shape="1669.53,649.12 1666.45,649.63 1664.32,650.79 1663.15,652.62 1662.93,655.11"/>
    </edge>
    <edge id=":1898717598_1" function="internal">
        <lane id=":1898717598_1_0" index="0" disallow="tram rail_urban rail rail_electric rail_fast ship container cable_car subway aircraft wheelchair scooter drone" speed="8.00" length="14.19" shape="1669.53,649.12 1665.66,648.76 1662.83,647.24 1661.05,644.58 1660.32,640.76"/>
    </edge>
    <edge id=":1898717598_2" function="internal">
        <lane id=":1898717598_2_0" index="0" disallow="tram rail_urban rail rail_electric rail_fast ship container cable_car subway aircraft wheelchair scooter drone" speed="3.65" length="4.67" shape="1669.53,649.12 1668.29,648.38 1667.85,647.60 1668.22,646.78 1669.38,645.93"/>
    </edge>
    <edge id=":1898717598_3" function="internal">
        <lane id=":1898717598_3_0" index="0" disallow="tram rail_urban rail rail_electric rail_fast ship container cable_car subway aircraft wheelchair scooter drone" speed="6.51" length="9.03" shape="1663.51,640.60 1663.98,643.03 1665.11,644.73 1666.91,645.69 1669.38,645.93"/>
    </edge>
    <edge id=":1898717598_4" function="internal">
        <lane id=":1898717598_4_0" index="0" disallow="tram rail_urban rail rail_electric rail_fast ship container cable_car subway aircraft wheelchair scooter drone" speed="27.78" length="14.54" shape="1663.51,640.60 1663.46,644.28 1663.14,647.86 1662.86,651.45 1662.93,655.11"/>
    </edge>
    <edge id=":1898717598_5" function="internal">
        <lane id=":1898717598_5_0" index="0" disallow="tram rail_urban rail rail_electric rail_fast ship container cable_car subway aircraft wheelchair scooter drone" speed="3.65" length="4.67" shape="1663.51,640.60 1662.77,641.84 1661.99,642.28 1661.17,641.92 1660.32,640.76"/>
    </edge>
    <edge id=":1898717643_0" function="internal">
        <lane id=":1898717643_0_0" index="0" disallow="tram rail_urban rail rail_electric rail_fast ship container cable_car subway aircraft wheelchair scooter drone" speed="3.65" length="1.31" shape="1686.84,787.60 1686.75,786.29"/>
    </edge>
    <edge id=":1898717643_3" function="internal">
        <lane id=":1898717643_3_0" index="0" disallow="tram rail_urban rail rail_electric rail_fast ship container cable_car subway aircraft wheelchair scooter drone" speed="3.65" length="3.36" shape="1686.75,786.29 1686.74,786.16 1687.12,785.36 1688.00,785.18 1689.37,785.64"/>
    </edge>
    <edge id=":1898717643_1" function="internal">
        <lane id=":1898717643_1_0" index="0" disallow="tram rail_urban rail rail_electric rail_fast ship container cable_car subway aircraft wheelchair scooter drone" speed="27.78" length="6.45" shape="1684.41,781.62 1685.68,783.00 1686.84,783.66 1688.02,784.31 1689.37,785.64"/>
    </edge>
    <edge id=":1898717643_2" function="internal">
        <lane id=":1898717643_2_0" index="0" disallow="tram rail_urban rail rail_electric rail_fast ship container cable_car subway aircraft wheelchair scooter drone" speed="6.03" length="7.91" shape="1682.48,787.18 1684.72,785.51 1686.61,784.69 1688.16,784.74 1689.37,785.64"/>
    </edge>
    <edge id=":1898717991_0" function="internal">
        <lane id=":1898717991_0_0" index="0" disallow="tram rail_urban rail rail_electric rail_fast ship container cable_car subway aircraft wheelchair scooter drone" speed="3.65" length="4.67" shape="2572.63,1706.32 2573.48,1707.49 2573.57,1708.38 2572.91,1708.99 2571.51,1709.32"/>
    </edge>
    <edge id=":2282793173_0" function="internal">
        <lane id=":2282793173_0_0" index="0" disallow="tram rail_urban rail rail_electric rail_fast ship container cable_car subway aircraft wheelchair scooter drone" speed="3.65" length="4.67" shape="1664.25,220.02 1664.21,218.57 1664.63,217.78 1665.51,217.65 1666.86,218.16"/>
    </edge>
    <edge id=":2282793175_0" function="internal">
        <lane id=":2282793175_0_0" index="0" disallow="tram rail_urban rail rail_electric rail_fast ship container cable_car subway aircraft wheelchair scooter drone" speed="3.86" length="4.88" shape="1695.28,224.57 1693.73,225.35 1693.29,225.85 1693.96,226.07 1695.73,226.00"/>
    </edge>
    <edge id=":2282793175_1" function="internal">
        <lane id=":2282793175_1_0" index="0" disallow="tram rail_urban rail rail_electric rail_fast ship container cable_car subway aircraft wheelchair scooter drone" speed="3.65" length="4.68" shape="1695.28,224.57 1696.71,224.74 1697.43,225.28 1697.44,226.18 1696.72,227.43"/>
    </edge>
    <edge id=":2282793177_0" function="internal">
        <lane id=":2282793177_0_0" index="0" disallow="tram rail_urban rail rail_electric rail_fast ship container cable_car subway aircraft wheelchair scooter drone" speed="7.01" length="8.67" shape="1677.19,227.67 1674.84,228.17 1673.06,229.21 1671.85,230.80 1671.20,232.91"/>
    </edge>
    <edge id=":2282793177_1" function="internal">
        <lane id=":2282793177_1_0" index="0" disallow="tram rail_urban rail rail_electric rail_fast ship container cable_car subway aircraft wheelchair scooter drone" speed="22.22" length="14.95" shape="1677.19,227.67 1673.46,227.92 1669.73,228.01 1665.99,227.96 1662.25,227.78"/>
    </edge>
    <edge id=":2282793177_2" function="internal">
        <lane id=":2282793177_2_0" index="0" disallow="tram rail_urban rail rail_electric rail_fast ship container cable_car subway aircraft wheelchair scooter drone" speed="9.79" length="12.94" shape="1677.19,227.67 1673.86,227.58 1670.88,226.68 1668.26,224.98 1666.00,222.47"/>
    </edge>
    <edge id=":2282793177_3" function="internal">
        <lane id=":2282793177_3_0" index="0" disallow="tram rail_urban rail rail_electric rail_fast ship container cable_car subway aircraft wheelchair scooter drone" speed="11.59" length="12.06" shape="1669.20,221.43 1670.84,224.25 1671.57,226.84 1671.62,229.61 1671.20,232.91"/>
    </edge>
    <edge id=":2282793177_4" function="internal">
        <lane id=":2282793177_4_0" index="0" disallow="tram rail_urban rail rail_electric rail_fast ship container cable_car subway aircraft wheelchair scooter drone" speed="6.46" length="3.84" shape="1669.20,221.43 1670.66,224.49 1670.53,224.92"/>
    </edge>
    <edge id=":2282793177_5" function="internal">
        <lane id=":2282793177_5_0" index="0" disallow="tram rail_urban rail rail_electric rail_fast ship container cable_car subway aircraft wheelchair scooter drone" speed="3.71" length="1.37" shape="1669.20,221.43 1668.82,222.75"/>
    </edge>
    <edge id=":2282793177_9" function="internal">
        <lane id=":2282793177_9_0" index="0" disallow="tram rail_urban rail rail_electric rail_fast ship container cable_car subway aircraft wheelchair scooter drone" speed="6.46" length="9.69" shape="1670.53,224.92 1670.00,226.57 1667.19,227.67 1662.25,227.78"/>
    </edge>
    <edge id=":2282793177_10" function="internal">
        <lane id=":2282793177_10_0" index="0" disallow="tram rail_urban rail rail_electric rail_fast ship container cable_car subway aircraft wheelchair scooter drone" speed="3.71" length="3.53" shape="1668.82,222.75 1668.79,222.89 1668.12,223.54 1667.19,223.40 1666.00,222.47"/>
    </edge>
    <edge id=":2282793177_6" function="internal">
        <lane id=":2282793177_6_0" index="0" disallow="tram rail_urban rail rail_electric rail_fast ship container cable_car subway aircraft wheelchair scooter drone" speed="6.16" length="8.52" shape="1668.04,232.43 1667.92,230.55 1666.92,229.14 1665.03,228.22 1662.25,227.78"/>
    </edge>
    <edge id=":2282793177_7" function="internal">
        <lane id=":2282793177_7_0" index="0" disallow="tram rail_urban rail rail_electric rail_fast ship container cable_car subway aircraft wheelchair scooter drone" speed="10.89" length="10.60" shape="1668.04,232.43 1668.45,229.36 1668.39,227.12 1667.65,225.05 1666.00,222.47"/>
    </edge>
    <edge id=":2282793177_8" function="internal">
        <lane id=":2282793177_8_0" index="0" disallow="tram rail_urban rail rail_electric rail_fast ship container cable_car subway aircraft wheelchair scooter drone" speed="3.65" length="1.44" shape="1668.04,232.43 1669.01,231.36"/>
    </edge>
    <edge id=":2282793177_11" function="internal">
        <lane id=":2282793177_11_0" index="0" disallow="tram rail_urban rail rail_electric rail_fast ship container cable_car subway aircraft wheelchair scooter drone" speed="3.65" length="3.23" shape="1669.01,231.36 1669.86,231.09 1670.59,231.61 1671.20,232.91"/>
    </edge>
    <edge id=":2282793186_0" function="internal">
        <lane id=":2282793186_0_0" index="0" disallow="tram rail_urban rail rail_electric rail_fast ship container cable_car subway aircraft wheelchair scooter drone" speed="19.44" length="0.49" shape="1609.56,250.72 1609.56,250.48 1609.56,250.31 1609.56,250.15 1609.58,249.90"/>
        <lane id=":2282793186_0_1" index="1" disallow="tram rail_urban rail rail_electric rail_fast ship container cable_car subway aircraft wheelchair scooter drone" speed="19.44" length="0.49" shape="1612.76,250.63 1612.76,250.49 1612.76,250.39 1612.76,250.29 1612.77,250.14"/>
        <lane id=":2282793186_0_2" index="2" disallow="tram rail_urban rail rail_electric rail_fast ship container cable_car subway aircraft wheelchair scooter drone" speed="19.44" length="0.49" shape="1615.96,250.54 1615.96,250.49 1615.96,250.46 1615.96,250.43 1615.96,250.38"/>
    </edge>
    <edge id=":2282793187_0" function="internal">
        <lane id=":2282793187_0_0" index="0" disallow="tram rail_urban rail rail_electric rail_fast ship container cable_car subway aircraft wheelchair scooter drone" speed="14.56" length="18.40" shape="1640.09,231.16 1637.52,234.02 1635.13,237.35 1633.40,241.66 1632.81,247.44"/>
    </edge>
    <edge id=":2282793187_1" function="internal">
        <lane id=":2282793187_1_0" index="0" disallow="tram rail_urban rail rail_electric rail_fast ship container cable_car subway aircraft wheelchair scooter drone" speed="19.44" length="18.47" shape="1634.56,229.40 1633.97,234.75 1633.36,238.41 1632.91,242.07 1632.81,247.44"/>
        <lane id=":2282793187_1_1" index="1" disallow="tram rail_urban rail rail_electric rail_fast ship container cable_car subway aircraft wheelchair scooter drone" speed="19.44" length="18.47" shape="1631.36,229.15 1630.77,234.60 1630.15,238.32 1629.71,242.04 1629.61,247.51"/>
        <lane id=":2282793187_1_2" index="2" disallow="tram rail_urban rail rail_electric rail_fast ship container cable_car subway aircraft wheelchair scooter drone" speed="19.44" length="18.47" shape="1628.17,228.91 1627.57,234.45 1626.95,238.23 1626.51,242.01 1626.41,247.57"/>
    </edge>
    <edge id=":2282793322_0" function="internal">
        <lane id=":2282793322_0_0" index="0" disallow="tram rail_urban rail rail_electric rail_fast ship container cable_car subway aircraft wheelchair scooter drone" speed="27.78" length="17.72" shape="1588.26,879.16 1599.35,865.45"/>
        <lane id=":2282793322_0_1" index="1" disallow="tram rail_urban rail rail_electric rail_fast ship container cable_car subway aircraft wheelchair scooter drone" speed="27.78" length="17.72" shape="1590.61,881.33 1601.80,867.50"/>
    </edge>
    <edge id=":2282793322_2" function="internal">
        <lane id=":2282793322_2_0" index="0" disallow="tram rail_urban rail rail_electric rail_fast ship container cable_car subway aircraft wheelchair scooter drone" speed="25.00" length="17.85" shape="1590.61,881.33 1594.78,877.30 1598.41,874.60 1601.72,872.65 1604.96,870.91"/>
    </edge>
    <edge id=":2282793324_0" function="internal">
        <lane id=":2282793324_0_0" index="0" disallow="tram rail_urban rail rail_electric rail_fast ship container cable_car subway aircraft wheelchair scooter drone" speed="5.92" length="8.78" shape="1540.52,918.90 1541.91,920.87 1543.55,921.70 1545.45,921.40 1547.60,919.95"/>
    </edge>
    <edge id=":2282793324_1" function="internal">
        <lane id=":2282793324_1_0" index="0" disallow="tram rail_urban rail rail_electric rail_fast ship container cable_car subway aircraft wheelchair scooter drone" speed="3.65" length="4.67" shape="1540.52,918.90 1540.33,920.33 1539.80,921.04 1538.90,921.04 1537.65,920.32"/>
    </edge>
    <edge id=":2282793324_2" function="internal">
        <lane id=":2282793324_2_0" index="0" disallow="tram rail_urban rail rail_electric rail_fast ship container cable_car subway aircraft wheelchair scooter drone" speed="7.62" length="10.17" shape="1536.67,929.66 1538.19,927.77 1538.86,925.59 1538.68,923.10 1537.65,920.32"/>
    </edge>
    <edge id=":2282793324_3" function="internal">
        <lane id=":2282793324_3_0" index="0" disallow="tram rail_urban rail rail_electric rail_fast ship container cable_car subway aircraft wheelchair scooter drone" speed="27.78" length="14.62" shape="1536.67,929.66 1547.60,919.95"/>
        <lane id=":2282793324_3_1" index="1" disallow="tram rail_urban rail rail_electric rail_fast ship container cable_car subway aircraft wheelchair scooter drone" speed="27.78" length="14.62" shape="1538.80,932.05 1549.73,922.34"/>
    </edge>
    <edge id=":2584141855_0" function="internal">
        <lane id=":2584141855_0_0" index="0" disallow="tram rail_urban rail rail_electric rail_fast ship container cable_car subway aircraft wheelchair scooter drone" speed="11.54" length="6.87" shape="944.86,1024.70 946.89,1024.48 948.34,1024.31 949.64,1023.83 951.24,1022.67"/>
    </edge>
    <edge id=":2584141855_1" function="internal">
        <lane id=":2584141855_1_0" index="0" disallow="tram rail_urban rail rail_electric rail_fast ship container cable_car subway aircraft wheelchair scooter drone" speed="10.47" length="7.00" shape="947.39,1028.27 947.96,1026.31 948.65,1025.06 949.66,1024.01 951.24,1022.67"/>
    </edge>
    <edge id=":2584141867_0" function="internal">
        <lane id=":2584141867_0_0" index="0" disallow="tram rail_urban rail rail_electric rail_fast ship container cable_car subway aircraft wheelchair scooter drone" speed="6.64" length="8.92" shape="812.55,1050.23 813.80,1052.22 815.44,1053.38 817.49,1053.70 819.92,1053.19"/>
    </edge>
    <edge id=":2584141867_1" function="internal">
        <lane id=":2584141867_1_0" index="0" disallow="tram rail_urban rail rail_electric rail_fast ship container cable_car subway aircraft wheelchair scooter drone" speed="22.22" length="9.41" shape="812.55,1050.23 816.62,1058.71"/>
    </edge>
    <edge id=":2584141867_2" function="internal">
        <lane id=":2584141867_2_0" index="0" disallow="tram rail_urban rail rail_electric rail_fast ship container cable_car subway aircraft wheelchair scooter drone" speed="27.78" length="9.18" shape="811.41,1056.62 813.88,1055.46 815.59,1054.73 817.35,1054.09 819.92,1053.19"/>
    </edge>
    <edge id=":2584141867_3" function="internal">
        <lane id=":2584141867_3_0" index="0" disallow="tram rail_urban rail rail_electric rail_fast ship container cable_car subway aircraft wheelchair scooter drone" speed="5.65" length="6.33" shape="811.41,1056.62 812.95,1056.16 814.33,1056.36 815.56,1057.21 816.62,1058.71"/>
    </edge>
    <edge id=":2584141872_0" function="internal">
        <lane id=":2584141872_0_0" index="0" disallow="tram rail_urban rail rail_electric rail_fast ship container cable_car subway aircraft wheelchair scooter drone" speed="25.00" length="18.11" shape="768.07,1084.80 771.07,1081.82 774.29,1078.24 777.44,1074.58 780.21,1071.38"/>
    </edge>
    <edge id=":2584141872_1" function="internal">
        <lane id=":2584141872_1_0" index="0" disallow="tram rail_urban rail rail_electric rail_fast ship container cable_car subway aircraft wheelchair scooter drone" speed="27.78" length="18.11" shape="768.07,1084.80 771.33,1082.11 775.20,1079.24 779.13,1076.43 782.57,1073.96"/>
    </edge>
    <edge id=":3009946157_0" function="internal">
        <lane id=":3009946157_0_0" index="0" disallow="tram rail_urban rail rail_electric rail_fast ship container cable_car subway aircraft wheelchair scooter drone" speed="3.65" length="4.67" shape="1823.10,638.59 1824.34,639.33 1824.78,640.11 1824.42,640.93 1823.26,641.78"/>
    </edge>
    <edge id=":3037850743_0" function="internal">
        <lane id=":3037850743_0_0" index="0" disallow="tram rail_urban rail rail_electric rail_fast ship container cable_car subway aircraft wheelchair scooter drone" speed="6.70" length="8.21" shape="1711.67,818.99 1710.04,817.66 1708.26,817.09 1706.32,817.27 1704.23,818.21"/>
    </edge>
    <edge id=":3037850743_1" function="internal">
        <lane id=":3037850743_1_0" index="0" disallow="tram rail_urban rail rail_electric rail_fast ship container cable_car subway aircraft wheelchair scooter drone" speed="27.78" length="9.69" shape="1711.67,818.99 1705.46,811.55"/>
    </edge>
    <edge id=":3037850743_2" function="internal">
        <lane id=":3037850743_2_0" index="0" disallow="tram rail_urban rail rail_electric rail_fast ship container cable_car subway aircraft wheelchair scooter drone" speed="3.65" length="1.44" shape="1711.67,818.99 1711.46,817.56"/>
    </edge>
    <edge id=":3037850743_6" function="internal">
        <lane id=":3037850743_6_0" index="0" disallow="tram rail_urban rail rail_electric rail_fast ship container cable_car subway aircraft wheelchair scooter drone" speed="3.65" length="3.23" shape="1711.46,817.56 1711.78,816.73 1712.64,816.48 1714.04,816.83"/>
    </edge>
    <edge id=":3037850743_3" function="internal">
        <lane id=":3037850743_3_0" index="0" disallow="tram rail_urban rail rail_electric rail_fast ship container cable_car subway aircraft wheelchair scooter drone" speed="27.78" length="9.44" shape="1707.99,809.58 1714.04,816.83"/>
    </edge>
    <edge id=":3037850743_4" function="internal">
        <lane id=":3037850743_4_0" index="0" disallow="tram rail_urban rail rail_electric rail_fast ship container cable_car subway aircraft wheelchair scooter drone" speed="6.81" length="2.39" shape="1707.99,809.58 1709.01,811.74"/>
    </edge>
    <edge id=":3037850743_5" function="internal">
        <lane id=":3037850743_5_0" index="0" disallow="tram rail_urban rail rail_electric rail_fast ship container cable_car subway aircraft wheelchair scooter drone" speed="3.65" length="1.44" shape="1707.99,809.58 1708.09,811.02"/>
    </edge>
    <edge id=":3037850743_7" function="internal">
        <lane id=":3037850743_7_0" index="0" disallow="tram rail_urban rail rail_electric rail_fast ship container cable_car subway aircraft wheelchair scooter drone" speed="6.81" length="8.47" shape="1709.01,811.74 1708.72,813.90 1707.13,816.05 1704.23,818.21"/>
    </edge>
    <edge id=":3037850743_8" function="internal">
        <lane id=":3037850743_8_0" index="0" disallow="tram rail_urban rail rail_electric rail_fast ship container cable_car subway aircraft wheelchair scooter drone" speed="3.65" length="3.23" shape="1708.09,811.02 1707.71,811.83 1706.83,812.00 1705.46,811.55"/>
    </edge>
    <edge id=":3066539128_0" function="internal">
        <lane id=":3066539128_0_0" index="0" disallow="tram rail_urban rail rail_electric rail_fast ship container cable_car subway aircraft wheelchair scooter drone" speed="25.00" length="21.90" shape="404.35,307.67 403.88,315.01 403.40,320.88 403.31,325.60 404.03,329.46"/>
    </edge>
    <edge id=":3066539128_1" function="internal">
        <lane id=":3066539128_1_0" index="0" disallow="tram rail_urban rail rail_electric rail_fast ship container cable_car subway aircraft wheelchair scooter drone" speed="19.05" length="23.21" shape="391.58,310.06 395.02,313.64 398.71,319.07 401.95,324.85 404.03,329.46"/>
    </edge>
    <edge id=":3066539130_0" function="internal">
        <lane id=":3066539130_0_0" index="0" disallow="tram rail_urban rail rail_electric rail_fast ship container cable_car subway aircraft wheelchair scooter drone" speed="22.22" length="5.70" shape="404.10,329.65 404.83,331.11 405.66,331.92 406.64,332.64 407.81,333.86"/>
    </edge>
    <edge id=":3066539130_1" function="internal">
        <lane id=":3066539130_1_0" index="0" disallow="tram rail_urban rail rail_electric rail_fast ship container cable_car subway aircraft wheelchair scooter drone" speed="22.22" length="5.67" shape="404.10,329.65 404.47,331.25 404.40,332.39 404.18,333.57 404.12,335.25"/>
    </edge>
    <edge id=":3066539132_0" function="internal">